[General]
network = Network
sim-time-limit =20.00s
