[General]
network = Network
sim-time-limit =10.00s
